<?xml version="1.0" encoding="UTF-8"?>

<!-- generated on 06/05/18 17:17:16 by SUMO netconvert Version 0.15.0
<?xml version="1.0" encoding="UTF-8"?>

<configuration xmlns:xsi="http://www.w3.org/2001/XMLSchema-instance" xsi:noNamespaceSchemaLocation="http://sumo.sf.net/xsd/netconvertConfiguration.xsd">

    <input>
        <osm-files value="Beauchef_850.osm"/>
    </input>

    <output>
        <output-file value="Beauchef_850.net.xml"/>
    </output>

    <projection>
        <proj.utm value="true"/>
    </projection>

</configuration>
-->

<net version="0.13" xmlns:xsi="http://www.w3.org/2001/XMLSchema-instance" xsi:noNamespaceSchemaLocation="http://sumo.sf.net/xsd/net_file.xsd">

    <location netOffset="-344349.06,3704686.51" convBoundary="0.00,0.00,1542.60,2475.05" origBoundary="-70.674841,-33.470483,-70.658177,-33.448117" projParameter="+proj=utm +zone=19 +ellps=WGS84 +datum=WGS84 +units=m +no_defs"/>

    <edge id=":-1181879792_0" function="internal">
        <lane id=":-1181879792_0_0" index="0" speed="16.67" length="12.81" shape="1141.71,1496.56 1145.49,1497.00 1148.08,1497.30 1150.66,1497.61 1154.44,1498.06"/>
    </edge>
    <edge id=":-1181879792_1" function="internal">
        <lane id=":-1181879792_1_0" index="0" speed="16.67" length="12.81" shape="1141.33,1499.84 1145.11,1500.28 1147.69,1500.58 1150.27,1500.89 1154.05,1501.34"/>
    </edge>
    <edge id=":-1181879792_2" function="internal">
        <lane id=":-1181879792_2_0" index="0" speed="15.28" length="10.95" shape="1141.33,1499.84 1145.53,1500.53 1148.47,1501.49 1150.15,1502.70 1150.56,1504.18"/>
    </edge>
    <edge id=":-1181879792_3" function="internal">
        <lane id=":-1181879792_3_0" index="0" speed="15.28" length="7.90" shape="1141.33,1499.84 1144.10,1500.36 1146.01,1501.19 1147.08,1502.31 1147.29,1503.74"/>
    </edge>
    <edge id=":-1181879792_4" function="internal">
        <lane id=":-1181879792_4_0" index="0" speed="15.28" length="5.02" shape="1141.33,1499.84 1142.66,1500.19 1143.56,1500.88 1144.01,1501.92 1144.02,1503.30"/>
    </edge>
    <edge id=":-164513294_0" function="internal">
        <lane id=":-164513294_0_0" index="0" speed="16.67" length="4.82" shape="1077.59,5.05 1078.49,3.86 1079.33,3.49 1080.13,3.95 1080.89,5.23"/>
    </edge>
    <edge id=":-1691603917_0" function="internal">
        <lane id=":-1691603917_0_0" index="0" speed="8.33" length="5.91" shape="1336.68,1244.00 1335.58,1244.59 1334.76,1245.59 1334.20,1247.01 1333.92,1248.83"/>
    </edge>
    <edge id=":-1691603917_1" function="internal">
        <lane id=":-1691603917_1_0" index="0" speed="8.33" length="14.79" shape="1336.68,1244.00 1333.08,1244.87 1329.44,1245.35 1325.76,1245.61 1322.04,1245.80"/>
    </edge>
    <edge id=":-1691603917_2" function="internal">
        <lane id=":-1691603917_2_0" index="0" speed="8.33" length="15.11" shape="1336.68,1244.00 1334.20,1244.17 1331.09,1243.34 1327.34,1241.50 1322.96,1238.65"/>
    </edge>
    <edge id=":-1691603917_3" function="internal">
        <lane id=":-1691603917_3_0" index="0" speed="8.33" length="4.82" shape="1336.68,1244.00 1335.25,1243.58 1334.61,1242.92 1334.76,1242.01 1335.70,1240.85"/>
    </edge>
    <edge id=":-1691603917_4" function="internal">
        <lane id=":-1691603917_4_0" index="0" speed="8.33" length="12.11" shape="1324.88,1235.97 1328.57,1238.43 1331.61,1240.06 1333.98,1240.87 1335.70,1240.85"/>
    </edge>
    <edge id=":-1691603917_5" function="internal">
        <lane id=":-1691603917_5_0" index="0" speed="8.33" length="16.35" shape="1324.88,1235.97 1329.00,1239.31 1331.88,1242.56 1333.52,1245.74 1333.92,1248.83"/>
    </edge>
    <edge id=":-1691603917_6" function="internal">
        <lane id=":-1691603917_6_0" index="0" speed="8.33" length="18.31" shape="1324.88,1235.97 1329.40,1239.93 1330.43,1242.90 1327.98,1244.85 1322.04,1245.80"/>
    </edge>
    <edge id=":-1691603917_7" function="internal">
        <lane id=":-1691603917_7_0" index="0" speed="8.33" length="4.82" shape="1324.88,1235.97 1325.40,1237.36 1325.26,1238.27 1324.45,1238.70 1322.96,1238.65"/>
    </edge>
    <edge id=":-1691603917_8" function="internal">
        <lane id=":-1691603917_8_0" index="0" speed="8.33" length="7.18" shape="1321.85,1242.51 1324.18,1242.14 1325.14,1241.37 1324.73,1240.21 1322.96,1238.65"/>
    </edge>
    <edge id=":-1691603917_9" function="internal">
        <lane id=":-1691603917_9_0" index="0" speed="8.33" length="13.99" shape="1321.85,1242.51 1325.44,1242.34 1328.85,1242.13 1332.22,1241.70 1335.70,1240.85"/>
    </edge>
    <edge id=":-1691603917_10" function="internal">
        <lane id=":-1691603917_10_0" index="0" speed="8.33" length="15.57" shape="1321.85,1242.51 1327.32,1242.63 1331.15,1243.72 1333.35,1245.79 1333.92,1248.83"/>
    </edge>
    <edge id=":-1691603917_11" function="internal">
        <lane id=":-1691603917_11_0" index="0" speed="8.33" length="4.82" shape="1321.85,1242.51 1323.13,1243.26 1323.59,1244.06 1323.22,1244.91 1322.04,1245.80"/>
    </edge>
    <edge id=":-1691603917_12" function="internal">
        <lane id=":-1691603917_12_0" index="0" speed="8.33" length="9.93" shape="1330.63,1248.60 1330.18,1247.18 1328.60,1246.25 1325.88,1245.79 1322.04,1245.80"/>
    </edge>
    <edge id=":-1691603917_13" function="internal">
        <lane id=":-1691603917_13_0" index="0" speed="8.33" length="13.00" shape="1330.63,1248.60 1330.26,1246.38 1328.86,1243.98 1326.43,1241.41 1322.96,1238.65"/>
    </edge>
    <edge id=":-1691603917_14" function="internal">
        <lane id=":-1691603917_14_0" index="0" speed="8.33" length="9.88" shape="1330.63,1248.60 1331.11,1245.75 1332.12,1243.51 1333.65,1241.88 1335.70,1240.85"/>
    </edge>
    <edge id=":-1691603917_15" function="internal">
        <lane id=":-1691603917_15_0" index="0" speed="8.33" length="4.82" shape="1330.63,1248.60 1331.54,1247.42 1332.39,1247.07 1333.19,1247.54 1333.92,1248.83"/>
    </edge>
    <edge id=":-1691603936_0" function="internal">
        <lane id=":-1691603936_0_0" index="0" speed="5.56" length="9.85" shape="1334.13,1306.31 1324.31,1305.55"/>
    </edge>
    <edge id=":-1691603936_1" function="internal">
        <lane id=":-1691603936_1_0" index="0" speed="6.94" length="7.22" shape="1334.13,1306.31 1331.43,1305.77 1329.50,1304.44 1328.48,1302.57"/>
    </edge>
    <edge id=":-1691603936_9" function="internal">
        <lane id=":-1691603936_9_0" index="0" speed="6.94" length="3.30" shape="1328.48,1302.57 1328.33,1302.29 1327.91,1299.33"/>
    </edge>
    <edge id=":-1691603936_2" function="internal">
        <lane id=":-1691603936_2_0" index="0" speed="5.56" length="2.41" shape="1334.13,1306.31 1332.93,1305.43 1332.55,1304.59"/>
    </edge>
    <edge id=":-1691603936_10" function="internal">
        <lane id=":-1691603936_10_0" index="0" speed="5.56" length="2.41" shape="1332.55,1304.59 1332.99,1303.78 1334.26,1303.01"/>
    </edge>
    <edge id=":-1691603936_3" function="internal">
        <lane id=":-1691603936_3_0" index="0" speed="6.94" length="5.40" shape="1331.21,1299.30 1331.42,1300.88 1331.99,1302.02 1332.94,1302.73 1334.26,1303.01"/>
    </edge>
    <edge id=":-1691603936_4" function="internal">
        <lane id=":-1691603936_4_0" index="0" speed="6.94" length="10.93" shape="1331.21,1299.30 1330.81,1302.32 1329.52,1304.37 1327.35,1305.44 1324.31,1305.55"/>
    </edge>
    <edge id=":-1691603936_5" function="internal">
        <lane id=":-1691603936_5_0" index="0" speed="8.33" length="4.82" shape="1331.21,1299.30 1330.40,1300.55 1329.58,1300.97 1328.75,1300.56 1327.91,1299.33"/>
    </edge>
    <edge id=":-1691603936_6" function="internal">
        <lane id=":-1691603936_6_0" index="0" speed="6.94" length="5.15" shape="1324.66,1302.28 1326.10,1302.23 1327.12,1301.72 1327.72,1300.76 1327.91,1299.33"/>
    </edge>
    <edge id=":-1691603936_7" function="internal">
        <lane id=":-1691603936_7_0" index="0" speed="5.56" length="9.63" shape="1324.66,1302.28 1334.26,1303.01"/>
    </edge>
    <edge id=":-1691603936_8" function="internal">
        <lane id=":-1691603936_8_0" index="0" speed="5.56" length="2.40" shape="1324.66,1302.28 1325.80,1303.23 1326.12,1304.09"/>
    </edge>
    <edge id=":-1691603936_11" function="internal">
        <lane id=":-1691603936_11_0" index="0" speed="5.56" length="2.40" shape="1326.12,1304.09 1325.62,1304.86 1324.31,1305.55"/>
    </edge>
    <edge id=":-1691603938_0" function="internal">
        <lane id=":-1691603938_0_0" index="0" speed="5.56" length="10.11" shape="1256.22,1216.47 1255.84,1213.51 1255.60,1211.45 1255.45,1209.39 1255.32,1206.41"/>
    </edge>
    <edge id=":-1691603938_1" function="internal">
        <lane id=":-1691603938_1_0" index="0" speed="6.94" length="7.60" shape="1256.22,1216.47 1256.27,1213.10 1257.43,1210.86 1258.96,1210.10"/>
    </edge>
    <edge id=":-1691603938_9" function="internal">
        <lane id=":-1691603938_9_0" index="0" speed="6.94" length="4.19" shape="1258.96,1210.10 1259.70,1209.73 1263.06,1209.73"/>
    </edge>
    <edge id=":-1691603938_2" function="internal">
        <lane id=":-1691603938_2_0" index="0" speed="5.56" length="2.41" shape="1256.22,1216.47 1256.88,1215.14 1257.65,1214.63"/>
    </edge>
    <edge id=":-1691603938_10" function="internal">
        <lane id=":-1691603938_10_0" index="0" speed="5.56" length="2.41" shape="1257.65,1214.63 1258.52,1214.93 1259.49,1216.06"/>
    </edge>
    <edge id=":-1691603938_3" function="internal">
        <lane id=":-1691603938_3_0" index="0" speed="6.94" length="5.36" shape="1262.60,1212.99 1261.07,1213.00 1260.04,1213.51 1259.51,1214.53 1259.49,1216.06"/>
    </edge>
    <edge id=":-1691603938_4" function="internal">
        <lane id=":-1691603938_4_0" index="0" speed="6.94" length="10.78" shape="1262.60,1212.99 1259.49,1212.21 1257.25,1210.85 1255.85,1208.91 1255.32,1206.41"/>
    </edge>
    <edge id=":-1691603938_5" function="internal">
        <lane id=":-1691603938_5_0" index="0" speed="8.33" length="4.82" shape="1262.60,1212.99 1261.49,1212.00 1261.20,1211.13 1261.72,1210.37 1263.06,1209.73"/>
    </edge>
    <edge id=":-1691603938_6" function="internal">
        <lane id=":-1691603938_6_0" index="0" speed="6.94" length="6.14" shape="1258.61,1206.28 1258.93,1207.56 1259.78,1208.56 1261.16,1209.28 1263.06,1209.73"/>
    </edge>
    <edge id=":-1691603938_7" function="internal">
        <lane id=":-1691603938_7_0" index="0" speed="5.56" length="9.82" shape="1258.61,1206.28 1259.49,1216.06"/>
    </edge>
    <edge id=":-1691603938_8" function="internal">
        <lane id=":-1691603938_8_0" index="0" speed="5.56" length="2.41" shape="1258.61,1206.28 1257.84,1207.55 1257.03,1207.99"/>
    </edge>
    <edge id=":-1691603938_11" function="internal">
        <lane id=":-1691603938_11_0" index="0" speed="5.56" length="2.41" shape="1257.03,1207.99 1256.19,1207.61 1255.32,1206.41"/>
    </edge>
    <edge id=":-2075002344_0" function="internal">
        <lane id=":-2075002344_0_0" index="0" speed="16.67" length="0.31" shape="246.76,1341.13 246.46,1341.09"/>
    </edge>
    <edge id=":-2075002344_1" function="internal">
        <lane id=":-2075002344_1_0" index="0" speed="16.67" length="0.94" shape="247.53,1337.92 246.61,1337.79"/>
    </edge>
    <edge id=":-2075002344_2" function="internal">
        <lane id=":-2075002344_2_0" index="0" speed="16.67" length="1.57" shape="248.30,1334.72 246.75,1334.50"/>
    </edge>
    <edge id=":-2082840467_0" function="internal">
        <lane id=":-2082840467_0_0" index="0" speed="16.67" length="0.49" shape="238.09,1340.72 237.60,1340.68"/>
    </edge>
    <edge id=":-2082840467_1" function="internal">
        <lane id=":-2082840467_1_0" index="0" speed="16.67" length="0.29" shape="238.24,1337.42 237.95,1337.40"/>
    </edge>
    <edge id=":-2082840467_2" function="internal">
        <lane id=":-2082840467_2_0" index="0" speed="16.67" length="0.10" shape="238.38,1334.12 238.29,1334.12"/>
    </edge>
    <edge id=":-2082851112_0" function="internal">
        <lane id=":-2082851112_0_0" index="0" speed="1.39" length="4.82" shape="784.85,1608.76 783.82,1609.83 782.93,1610.09 782.20,1609.54 781.61,1608.17"/>
    </edge>
    <edge id=":-373951698_0" function="internal">
        <lane id=":-373951698_0_0" index="0" speed="27.78" length="0.66" shape="248.52,1320.51 249.17,1320.60"/>
    </edge>
    <edge id=":-373951698_1" function="internal">
        <lane id=":-373951698_1_0" index="0" speed="27.78" length="0.39" shape="248.23,1323.80 248.62,1323.85"/>
    </edge>
    <edge id=":-373951698_2" function="internal">
        <lane id=":-373951698_2_0" index="0" speed="27.78" length="0.13" shape="247.94,1327.09 248.07,1327.10"/>
    </edge>
    <edge id=":-391467632_0" function="internal">
        <lane id=":-391467632_0_0" index="0" speed="12.50" length="10.17" shape="920.28,1468.41 917.53,1467.73 915.56,1466.40 914.38,1464.43 914.00,1461.80"/>
    </edge>
    <edge id=":-391467632_1" function="internal">
        <lane id=":-391467632_1_0" index="0" speed="12.50" length="7.86" shape="920.28,1468.41 918.97,1467.87 918.03,1466.59 917.48,1464.57 917.30,1461.82"/>
    </edge>
    <edge id=":-391467632_2" function="internal">
        <lane id=":-391467632_2_0" index="0" speed="8.33" length="4.82" shape="920.28,1468.41 919.15,1467.45 918.83,1466.58 919.33,1465.81 920.65,1465.13"/>
    </edge>
    <edge id=":-391467632_3" function="internal">
        <lane id=":-391467632_3_0" index="0" speed="16.67" length="6.86" shape="910.48,1468.64 910.70,1461.79"/>
    </edge>
    <edge id=":-391467632_4" function="internal">
        <lane id=":-391467632_4_0" index="0" speed="16.67" length="7.09" shape="913.77,1468.89 914.00,1461.80"/>
    </edge>
    <edge id=":-391467632_5" function="internal">
        <lane id=":-391467632_5_0" index="0" speed="16.67" length="7.32" shape="917.06,1469.13 917.30,1461.82"/>
    </edge>
    <edge id=":-391467632_6" function="internal">
        <lane id=":-391467632_6_0" index="0" speed="12.50" length="6.14" shape="917.06,1469.13 917.41,1467.24 918.12,1465.95 919.20,1465.24 920.65,1465.13"/>
    </edge>
    <edge id=":-403798949_0" function="internal">
        <lane id=":-403798949_0_0" index="0" speed="8.33" length="4.82" shape="1340.39,1527.83 1340.53,1529.31 1340.15,1530.15 1339.25,1530.35 1337.83,1529.91"/>
    </edge>
    <edge id=":-575939147_0" function="internal">
        <lane id=":-575939147_0_0" index="0" speed="5.56" length="4.82" shape="487.78,1325.34 486.59,1324.46 486.22,1323.61 486.68,1322.81 487.96,1322.05"/>
    </edge>
    <edge id=":-575947132_0" function="internal">
        <lane id=":-575947132_0_0" index="0" speed="2.78" length="7.94" shape="596.19,1230.61 594.03,1230.90 592.30,1230.43 591.00,1229.19 590.13,1227.20"/>
    </edge>
    <edge id=":-575947132_1" function="internal">
        <lane id=":-575947132_1_0" index="0" speed="2.78" length="2.41" shape="596.19,1230.61 594.77,1230.16 594.15,1229.47"/>
    </edge>
    <edge id=":-575947132_4" function="internal">
        <lane id=":-575947132_4_0" index="0" speed="2.78" length="2.41" shape="594.15,1229.47 594.33,1228.57 595.29,1227.44"/>
    </edge>
    <edge id=":-575947132_2" function="internal">
        <lane id=":-575947132_2_0" index="0" speed="2.78" length="2.59" shape="593.31,1226.32 593.60,1226.97 594.02,1227.38 594.59,1227.53 595.29,1227.44"/>
    </edge>
    <edge id=":-575947132_3" function="internal">
        <lane id=":-575947132_3_0" index="0" speed="2.78" length="2.41" shape="593.31,1226.32 592.85,1227.73 592.16,1228.35"/>
    </edge>
    <edge id=":-575947132_5" function="internal">
        <lane id=":-575947132_5_0" index="0" speed="2.78" length="2.41" shape="592.16,1228.35 591.26,1228.17 590.13,1227.20"/>
    </edge>
    <edge id=":-575947141_0" function="internal">
        <lane id=":-575947141_0_0" index="0" speed="2.78" length="21.99" shape="722.33,1131.83 720.85,1127.22 718.73,1121.44 716.53,1115.69 714.79,1111.17"/>
    </edge>
    <edge id=":-575947141_1" function="internal">
        <lane id=":-575947141_1_0" index="0" speed="2.78" length="21.39" shape="722.33,1131.83 720.26,1127.63 716.64,1122.90 712.47,1118.60 708.71,1115.68"/>
    </edge>
    <edge id=":-575947141_2" function="internal">
        <lane id=":-575947141_2_0" index="0" speed="2.78" length="4.82" shape="722.33,1131.83 722.80,1130.42 723.49,1129.80 724.40,1129.99 725.51,1130.97"/>
    </edge>
    <edge id=":-575947141_3" function="internal">
        <lane id=":-575947141_3_0" index="0" speed="2.78" length="19.16" shape="717.88,1110.01 719.32,1115.73 718.28,1118.58 714.74,1118.57 708.71,1115.68"/>
    </edge>
    <edge id=":-575947141_4" function="internal">
        <lane id=":-575947141_4_0" index="0" speed="2.78" length="22.31" shape="717.88,1110.01 719.63,1114.58 721.87,1120.43 724.02,1126.31 725.51,1130.97"/>
    </edge>
    <edge id=":-575947141_5" function="internal">
        <lane id=":-575947141_5_0" index="0" speed="2.78" length="4.82" shape="717.88,1110.01 717.54,1111.46 716.92,1112.14 716.00,1112.04 714.79,1111.17"/>
    </edge>
    <edge id=":-575947141_6" function="internal">
        <lane id=":-575947141_6_0" index="0" speed="2.78" length="22.83" shape="711.33,1113.40 715.18,1116.54 719.55,1121.33 723.35,1126.54 725.51,1130.97"/>
    </edge>
    <edge id=":-575947141_7" function="internal">
        <lane id=":-575947141_7_0" index="0" speed="2.78" length="7.33" shape="711.33,1113.40 713.62,1114.49 714.96,1114.48 715.35,1113.38 714.79,1111.17"/>
    </edge>
    <edge id=":-575947141_8" function="internal">
        <lane id=":-575947141_8_0" index="0" speed="2.78" length="5.07" shape="711.33,1113.40 711.53,1114.95 711.16,1115.85 710.22,1116.09 708.71,1115.68"/>
    </edge>
    <edge id=":-575947214_0" function="internal">
        <lane id=":-575947214_0_0" index="0" speed="2.78" length="5.57" shape="676.66,1111.74 676.02,1110.19 675.14,1109.22 674.01,1108.81 672.63,1108.97"/>
    </edge>
    <edge id=":-575947214_1" function="internal">
        <lane id=":-575947214_1_0" index="0" speed="2.78" length="11.38" shape="676.66,1111.74 676.23,1108.55 676.99,1106.20 678.94,1104.66 682.07,1103.95"/>
    </edge>
    <edge id=":-575947214_2" function="internal">
        <lane id=":-575947214_2_0" index="0" speed="2.78" length="4.82" shape="676.66,1111.74 677.12,1110.32 677.80,1109.70 678.70,1109.87 679.84,1110.83"/>
    </edge>
    <edge id=":-575947214_3" function="internal">
        <lane id=":-575947214_3_0" index="0" speed="2.78" length="5.25" shape="682.33,1107.24 680.89,1107.57 679.99,1108.28 679.64,1109.36 679.84,1110.83"/>
    </edge>
    <edge id=":-575947214_4" function="internal">
        <lane id=":-575947214_4_0" index="0" speed="2.78" length="9.85" shape="682.33,1107.24 672.63,1108.97"/>
    </edge>
    <edge id=":-575947214_5" function="internal">
        <lane id=":-575947214_5_0" index="0" speed="2.78" length="4.82" shape="682.33,1107.24 681.03,1106.52 680.56,1105.73 680.90,1104.87 682.07,1103.95"/>
    </edge>
    <edge id=":-575947214_6" function="internal">
        <lane id=":-575947214_6_0" index="0" speed="2.78" length="10.57" shape="671.70,1105.81 674.64,1104.97 676.81,1104.50 679.02,1104.21 682.07,1103.95"/>
    </edge>
    <edge id=":-575947214_7" function="internal">
        <lane id=":-575947214_7_0" index="0" speed="2.78" length="10.93" shape="671.70,1105.81 674.53,1105.43 676.83,1106.15 678.60,1107.95 679.84,1110.83"/>
    </edge>
    <edge id=":-575947214_8" function="internal">
        <lane id=":-575947214_8_0" index="0" speed="2.78" length="4.82" shape="671.70,1105.81 673.12,1106.25 673.75,1106.92 673.59,1107.83 672.63,1108.97"/>
    </edge>
    <edge id=":-575947228_0" function="internal">
        <lane id=":-575947228_0_0" index="0" speed="2.78" length="10.30" shape="708.61,1197.98 705.87,1199.23 703.90,1200.06 701.88,1200.74 698.98,1201.58"/>
    </edge>
    <edge id=":-575947228_1" function="internal">
        <lane id=":-575947228_1_0" index="0" speed="2.78" length="11.14" shape="708.61,1197.98 705.62,1198.87 703.20,1198.51 701.35,1196.91 700.07,1194.06"/>
    </edge>
    <edge id=":-575947228_2" function="internal">
        <lane id=":-575947228_2_0" index="0" speed="2.78" length="4.82" shape="708.61,1197.98 707.14,1197.75 706.42,1197.17 706.45,1196.25 707.23,1194.98"/>
    </edge>
    <edge id=":-575947228_3" function="internal">
        <lane id=":-575947228_3_0" index="0" speed="2.78" length="5.20" shape="703.25,1193.15 703.84,1194.48 704.70,1195.23 705.83,1195.40 707.23,1194.98"/>
    </edge>
    <edge id=":-575947228_4" function="internal">
        <lane id=":-575947228_4_0" index="0" speed="2.78" length="10.77" shape="703.25,1193.15 703.69,1196.19 703.13,1198.60 701.56,1200.40 698.98,1201.58"/>
    </edge>
    <edge id=":-575947228_5" function="internal">
        <lane id=":-575947228_5_0" index="0" speed="2.78" length="4.82" shape="703.25,1193.15 702.79,1194.57 702.11,1195.19 701.21,1195.02 700.07,1194.06"/>
    </edge>
    <edge id=":-575947228_6" function="internal">
        <lane id=":-575947228_6_0" index="0" speed="2.78" length="5.45" shape="698.09,1198.41 699.33,1197.82 700.08,1196.90 700.32,1195.64 700.07,1194.06"/>
    </edge>
    <edge id=":-575947228_7" function="internal">
        <lane id=":-575947228_7_0" index="0" speed="2.78" length="9.76" shape="698.09,1198.41 707.23,1194.98"/>
    </edge>
    <edge id=":-575947228_8" function="internal">
        <lane id=":-575947228_8_0" index="0" speed="2.78" length="4.82" shape="698.09,1198.41 699.50,1198.86 700.12,1199.55 699.95,1200.45 698.98,1201.58"/>
    </edge>
    <edge id=":-575947269_0" function="internal">
        <lane id=":-575947269_0_0" index="0" speed="2.78" length="10.33" shape="567.07,1143.33 566.72,1140.55 567.36,1138.31 568.97,1136.60 571.57,1135.42"/>
    </edge>
    <edge id=":-575947269_1" function="internal">
        <lane id=":-575947269_1_0" index="0" speed="2.78" length="9.50" shape="567.07,1143.33 564.55,1134.16"/>
    </edge>
    <edge id=":-575947269_2" function="internal">
        <lane id=":-575947269_2_0" index="0" speed="2.78" length="4.82" shape="567.07,1143.33 567.54,1141.92 568.22,1141.30 569.13,1141.48 570.25,1142.45"/>
    </edge>
    <edge id=":-575947269_3" function="internal">
        <lane id=":-575947269_3_0" index="0" speed="2.78" length="10.42" shape="572.50,1138.59 569.67,1139.00 567.40,1138.40 565.69,1136.79 564.55,1134.16"/>
    </edge>
    <edge id=":-575947269_4" function="internal">
        <lane id=":-575947269_4_0" index="0" speed="2.78" length="5.08" shape="572.50,1138.59 571.21,1139.17 570.41,1140.01 570.09,1141.10 570.25,1142.45"/>
    </edge>
    <edge id=":-575947269_5" function="internal">
        <lane id=":-575947269_5_0" index="0" speed="2.78" length="4.82" shape="572.50,1138.59 571.08,1138.15 570.45,1137.47 570.61,1136.56 571.57,1135.42"/>
    </edge>
    <edge id=":-575947269_6" function="internal">
        <lane id=":-575947269_6_0" index="0" speed="2.78" length="9.50" shape="567.73,1133.29 570.25,1142.45"/>
    </edge>
    <edge id=":-575947269_7" function="internal">
        <lane id=":-575947269_7_0" index="0" speed="2.78" length="5.02" shape="567.73,1133.29 568.28,1134.56 569.11,1135.33 570.20,1135.62 571.57,1135.42"/>
    </edge>
    <edge id=":-575947269_8" function="internal">
        <lane id=":-575947269_8_0" index="0" speed="2.78" length="4.82" shape="567.73,1133.29 567.27,1134.70 566.58,1135.32 565.67,1135.14 564.55,1134.16"/>
    </edge>
    <edge id=":-845335500_0" function="internal">
        <lane id=":-845335500_0_0" index="0" speed="11.11" length="3.97" shape="1006.08,1478.09 1004.73,1477.82 1003.79,1477.39 1003.26,1476.79 1003.14,1476.04"/>
    </edge>
    <edge id=":-845335500_1" function="internal">
        <lane id=":-845335500_1_0" index="0" speed="8.33" length="9.70" shape="1006.08,1478.09 996.44,1476.96"/>
    </edge>
    <edge id=":-845335500_2" function="internal">
        <lane id=":-845335500_2_0" index="0" speed="8.33" length="4.82" shape="1006.08,1478.09 1004.95,1477.12 1004.64,1476.25 1005.15,1475.48 1006.47,1474.81"/>
    </edge>
    <edge id=":-845335500_3" function="internal">
        <lane id=":-845335500_3_0" index="0" speed="11.11" length="5.39" shape="1003.47,1471.09 1003.57,1472.57 1004.11,1473.69 1005.08,1474.43 1006.47,1474.81"/>
    </edge>
    <edge id=":-845335500_4" function="internal">
        <lane id=":-845335500_4_0" index="0" speed="13.89" length="4.96" shape="1003.47,1471.09 1003.14,1476.04"/>
    </edge>
    <edge id=":-845335500_5" function="internal">
        <lane id=":-845335500_5_0" index="0" speed="13.89" length="4.85" shape="1000.18,1470.87 999.85,1475.71"/>
    </edge>
    <edge id=":-845335500_6" function="internal">
        <lane id=":-845335500_6_0" index="0" speed="11.11" length="7.98" shape="1000.18,1470.87 999.78,1473.68 999.03,1475.63 997.91,1476.72 996.44,1476.96"/>
    </edge>
    <edge id=":-845335500_7" function="internal">
        <lane id=":-845335500_7_0" index="0" speed="8.33" length="9.73" shape="996.81,1473.69 1006.47,1474.81"/>
    </edge>
    <edge id=":-845335500_8" function="internal">
        <lane id=":-845335500_8_0" index="0" speed="11.11" length="4.04" shape="996.81,1473.69 998.20,1473.95 999.18,1474.37 999.73,1474.96 999.85,1475.71"/>
    </edge>
    <edge id=":-845335500_9" function="internal">
        <lane id=":-845335500_9_0" index="0" speed="8.33" length="4.82" shape="996.81,1473.69 997.95,1474.64 998.27,1475.51 997.76,1476.28 996.44,1476.96"/>
    </edge>
    <edge id=":-885238138_0" function="internal">
        <lane id=":-885238138_0_0" index="0" speed="22.22" length="19.03" shape="1012.57,1278.58 1012.74,1282.29 1013.50,1286.30 1014.51,1291.15 1015.42,1297.37"/>
    </edge>
    <edge id=":-885238138_1" function="internal">
        <lane id=":-885238138_1_0" index="0" speed="16.67" length="2.41" shape="1012.57,1278.58 1011.66,1279.76 1010.82,1280.12"/>
    </edge>
    <edge id=":-885238138_4" function="internal">
        <lane id=":-885238138_4_0" index="0" speed="16.67" length="2.41" shape="1010.82,1280.12 1010.02,1279.66 1009.27,1278.37"/>
    </edge>
    <edge id=":-885238138_2" function="internal">
        <lane id=":-885238138_2_0" index="0" speed="22.22" length="19.16" shape="1005.22,1297.08 1006.72,1290.92 1007.94,1286.10 1008.81,1282.09 1009.27,1278.37"/>
    </edge>
    <edge id=":-885238138_3" function="internal">
        <lane id=":-885238138_3_0" index="0" speed="27.78" length="11.92" shape="1008.44,1297.83 1009.63,1293.68 1010.65,1292.32 1011.50,1293.73 1012.17,1297.93"/>
    </edge>
    <edge id=":-912668016_0" function="internal">
        <lane id=":-912668016_0_0" index="0" speed="8.33" length="9.65" shape="1286.39,1511.69 1276.79,1510.68"/>
    </edge>
    <edge id=":-912668016_1" function="internal">
        <lane id=":-912668016_1_0" index="0" speed="8.33" length="10.40" shape="1286.39,1511.69 1283.63,1511.03 1281.74,1509.64 1280.74,1507.51 1280.60,1504.65"/>
    </edge>
    <edge id=":-912668016_2" function="internal">
        <lane id=":-912668016_2_0" index="0" speed="8.33" length="4.82" shape="1286.39,1511.69 1285.23,1510.75 1284.89,1509.90 1285.38,1509.11 1286.68,1508.40"/>
    </edge>
    <edge id=":-912668016_3" function="internal">
        <lane id=":-912668016_3_0" index="0" speed="8.33" length="5.06" shape="1283.89,1504.96 1283.95,1506.36 1284.44,1507.40 1285.35,1508.08 1286.68,1508.40"/>
    </edge>
    <edge id=":-912668016_4" function="internal">
        <lane id=":-912668016_4_0" index="0" speed="8.33" length="10.45" shape="1283.89,1504.96 1283.22,1507.75 1281.81,1509.64 1279.67,1510.61 1276.79,1510.68"/>
    </edge>
    <edge id=":-912668016_5" function="internal">
        <lane id=":-912668016_5_0" index="0" speed="8.33" length="4.82" shape="1283.89,1504.96 1282.95,1506.11 1282.09,1506.45 1281.31,1505.96 1280.60,1504.65"/>
    </edge>
    <edge id=":-912668016_6" function="internal">
        <lane id=":-912668016_6_0" index="0" speed="8.33" length="5.03" shape="1277.19,1507.40 1278.57,1507.37 1279.60,1506.90 1280.28,1505.99 1280.60,1504.65"/>
    </edge>
    <edge id=":-912668016_7" function="internal">
        <lane id=":-912668016_7_0" index="0" speed="8.33" length="9.55" shape="1277.19,1507.40 1286.68,1508.40"/>
    </edge>
    <edge id=":-912668016_8" function="internal">
        <lane id=":-912668016_8_0" index="0" speed="8.33" length="4.82" shape="1277.19,1507.40 1278.32,1508.37 1278.63,1509.24 1278.12,1510.01 1276.79,1510.68"/>
    </edge>
    <edge id=":-912668018_0" function="internal">
        <lane id=":-912668018_0_0" index="0" speed="8.33" length="29.17" shape="1336.78,1528.61 1330.59,1522.42 1324.30,1518.95 1317.91,1518.22 1311.42,1520.23"/>
    </edge>
    <edge id=":-912668018_1" function="internal">
        <lane id=":-912668018_1_0" index="0" speed="8.33" length="28.99" shape="1336.78,1528.61 1331.88,1525.34 1324.00,1521.58 1316.26,1517.73 1311.77,1514.17"/>
    </edge>
    <edge id=":-912668018_2" function="internal">
        <lane id=":-912668018_2_0" index="0" speed="8.33" length="6.92" shape="1336.78,1528.61 1335.11,1527.28 1334.62,1526.05 1335.31,1524.92 1337.18,1523.89"/>
    </edge>
    <edge id=":-912668018_3" function="internal">
        <lane id=":-912668018_3_0" index="0" speed="8.33" length="28.76" shape="1310.86,1512.30 1337.18,1523.89"/>
    </edge>
    <edge id=":-912668018_4" function="internal">
        <lane id=":-912668018_4_0" index="0" speed="8.33" length="7.95" shape="1310.86,1512.30 1311.42,1520.23"/>
    </edge>
    <edge id=":-912668018_5" function="internal">
        <lane id=":-912668018_5_0" index="0" speed="8.33" length="3.05" shape="1310.86,1512.30 1311.79,1512.42 1312.25,1512.78 1312.25,1513.36 1311.77,1514.17"/>
    </edge>
    <edge id=":-912668018_6" function="internal">
        <lane id=":-912668018_6_0" index="0" speed="8.33" length="4.10" shape="1309.90,1517.30 1311.07,1516.56 1311.77,1515.79 1312.00,1515.00 1311.77,1514.17"/>
    </edge>
    <edge id=":-912668018_7" function="internal">