<?xml version="1.0" encoding="iso-8859-1"?>

<configuration xmlns:xsi="http://www.w3.org/2001/XMLSchema-instance" xsi:noNamespaceSchemaLocation="http://sumo.sf.net/xsd/sumoConfiguration.xsd">

    <input>
      <net-file value="Beauchef_850.net.xml"/>
      <route-files value="Beauchef_850.rou.xml"/>
      <additional-files value="Beauchef_850.poi.xml"/>
      <junction-files value=""/>
    </input>

    
    <time>
      <begin value="0"/>
      <end value="60"/>
      <route-steps value="-1"/>
    </time>

</configuration>